   CRYSTAL
   PRIMVEC
   3.8978290412   0.0000000000   0.0000000000
   0.0000000000   3.8978290412   0.0000000000
   0.0000000000   0.0000000000   3.8978290412
 PRIMCOORD
         5         1
   H    0.0000000001   0.0000000005   0.0000000000
   H    0.0000000002  -0.0000000002   0.0000000001
   H    0.0000000001  -0.0000000011  -0.0000000024
   H   -0.0000000004   0.0000000000  -0.0000000002
   H    0.0000000044  -0.0000000009   0.0000000002
